data_image0
_cell_length_a       7.85281
_cell_length_b       7.85281
_cell_length_c       30.3621
_cell_angle_alpha    90
_cell_angle_beta     90
_cell_angle_gamma    90

_symmetry_space_group_name_H-M    "P 1"
_symmetry_int_tables_number       1

loop_
  _symmetry_equiv_pos_as_xyz
  'x, y, z'

loop_
  _atom_site_label
  _atom_site_occupancy
  _atom_site_fract_x
  _atom_site_fract_y
  _atom_site_fract_z
  _atom_site_thermal_displace_type
  _atom_site_B_iso_or_equiv
  _atom_site_type_symbol
  K1       1.0000 0.25000  0.25000  0.25322  Biso   1.000  K
  K2       1.0000 0.75000  0.25000  0.25322  Biso   1.000  K
  K3       1.0000 0.25000  0.75000  0.24678  Biso   1.000  K
  K4       1.0000 0.75000  0.75000  0.24678  Biso   1.000  K
  K5       1.0000 0.25000  0.25000  0.75322  Biso   1.000  K
  K6       1.0000 0.75000  0.25000  0.75322  Biso   1.000  K
  K7       1.0000 0.25000  0.75000  0.74678  Biso   1.000  K
  K8       1.0000 0.75000  0.75000  0.74678  Biso   1.000  K
  Pb1      1.0000 0.25000  0.25000  0.07362  Biso   1.000  Pb
  Pb2      1.0000 0.75000  0.25000  0.07362  Biso   1.000  Pb
  Pb3      1.0000 0.25000  0.75000  0.07312  Biso   1.000  Pb
  Pb4      1.0000 0.75000  0.75000  0.07312  Biso   1.000  Pb
  Pb5      1.0000 0.25000  0.25000  0.57362  Biso   1.000  Pb
  Pb6      1.0000 0.75000  0.25000  0.57362  Biso   1.000  Pb
  Pb7      1.0000 0.25000  0.75000  0.57312  Biso   1.000  Pb
  Pb8      1.0000 0.75000  0.75000  0.57312  Biso   1.000  Pb
  Pb9      1.0000 0.25000  0.25000  0.42688  Biso   1.000  Pb
  Pb10     1.0000 0.75000  0.25000  0.42688  Biso   1.000  Pb
  Pb11     1.0000 0.25000  0.75000  0.42638  Biso   1.000  Pb
  Pb12     1.0000 0.75000  0.75000  0.42638  Biso   1.000  Pb
  Pb13     1.0000 0.25000  0.25000  0.92688  Biso   1.000  Pb
  Pb14     1.0000 0.75000  0.25000  0.92688  Biso   1.000  Pb
  Pb15     1.0000 0.25000  0.75000  0.92638  Biso   1.000  Pb
  Pb16     1.0000 0.75000  0.75000  0.92638  Biso   1.000  Pb
  Nb1      1.0000 0.00000  0.00000  0.00000  Biso   1.000  Nb
  Nb2      1.0000 0.50000  0.00000  0.00000  Biso   1.000  Nb
  Nb3      1.0000 0.00000  0.50000  0.00000  Biso   1.000  Nb
  Nb4      1.0000 0.50000  0.50000  0.00000  Biso   1.000  Nb
  Nb5      1.0000 0.00000  0.00000  0.50000  Biso   1.000  Nb
  Nb6      1.0000 0.50000  0.00000  0.50000  Biso   1.000  Nb
  Nb7      1.0000 0.00000  0.50000  0.50000  Biso   1.000  Nb
  Nb8      1.0000 0.50000  0.50000  0.50000  Biso   1.000  Nb
  Ta1      1.0000 0.00000  0.99845  0.14358  Biso   1.000  Ta
  Ta2      1.0000 0.50000  0.99845  0.14358  Biso   1.000  Ta
  Ta3      1.0000 0.00000  0.50155  0.14358  Biso   1.000  Ta
  Ta4      1.0000 0.50000  0.50155  0.14358  Biso   1.000  Ta
  Ta5      1.0000 0.00000  0.99845  0.64358  Biso   1.000  Ta
  Ta6      1.0000 0.50000  0.99845  0.64358  Biso   1.000  Ta
  Ta7      1.0000 0.00000  0.50155  0.64358  Biso   1.000  Ta
  Ta8      1.0000 0.50000  0.50155  0.64358  Biso   1.000  Ta
  Ta9      1.0000 0.00000  0.00155  0.35642  Biso   1.000  Ta
  Ta10     1.0000 0.50000  0.00155  0.35642  Biso   1.000  Ta
  Ta11     1.0000 0.00000  0.49845  0.35642  Biso   1.000  Ta
  Ta12     1.0000 0.50000  0.49845  0.35642  Biso   1.000  Ta
  Ta13     1.0000 0.00000  0.00155  0.85642  Biso   1.000  Ta
  Ta14     1.0000 0.50000  0.00155  0.85642  Biso   1.000  Ta
  Ta15     1.0000 0.00000  0.49845  0.85642  Biso   1.000  Ta
  Ta16     1.0000 0.50000  0.49845  0.85642  Biso   1.000  Ta
  O1       1.0000 0.00000  0.25000  0.99823  Biso   1.000  O
  O2       1.0000 0.50000  0.25000  0.99823  Biso   1.000  O
  O3       1.0000 0.00000  0.75000  0.00177  Biso   1.000  O
  O4       1.0000 0.50000  0.75000  0.00177  Biso   1.000  O
  O5       1.0000 0.00000  0.25000  0.49823  Biso   1.000  O
  O6       1.0000 0.50000  0.25000  0.49823  Biso   1.000  O
  O7       1.0000 0.00000  0.75000  0.50177  Biso   1.000  O
  O8       1.0000 0.50000  0.75000  0.50177  Biso   1.000  O
  O9       1.0000 0.25000  0.00000  0.00000  Biso   1.000  O
  O10      1.0000 0.75000  0.00000  0.00000  Biso   1.000  O
  O11      1.0000 0.25000  0.50000  0.00000  Biso   1.000  O
  O12      1.0000 0.75000  0.50000  0.00000  Biso   1.000  O
  O13      1.0000 0.25000  0.00000  0.50000  Biso   1.000  O
  O14      1.0000 0.75000  0.00000  0.50000  Biso   1.000  O
  O15      1.0000 0.25000  0.50000  0.50000  Biso   1.000  O
  O16      1.0000 0.75000  0.50000  0.50000  Biso   1.000  O
  O17      1.0000 0.00000  0.00619  0.06512  Biso   1.000  O
  O18      1.0000 0.50000  0.00619  0.06512  Biso   1.000  O
  O19      1.0000 0.00000  0.49381  0.06512  Biso   1.000  O
  O20      1.0000 0.50000  0.49381  0.06512  Biso   1.000  O
  O21      1.0000 0.00000  0.00619  0.56512  Biso   1.000  O
  O22      1.0000 0.50000  0.00619  0.56512  Biso   1.000  O
  O23      1.0000 0.00000  0.49381  0.56512  Biso   1.000  O
  O24      1.0000 0.50000  0.49381  0.56512  Biso   1.000  O
  O25      1.0000 0.00000  0.99381  0.43488  Biso   1.000  O
  O26      1.0000 0.50000  0.99381  0.43488  Biso   1.000  O
  O27      1.0000 0.00000  0.50619  0.43488  Biso   1.000  O
  O28      1.0000 0.50000  0.50619  0.43488  Biso   1.000  O
  O29      1.0000 0.00000  0.99381  0.93488  Biso   1.000  O
  O30      1.0000 0.50000  0.99381  0.93488  Biso   1.000  O
  O31      1.0000 0.00000  0.50619  0.93488  Biso   1.000  O
  O32      1.0000 0.50000  0.50619  0.93488  Biso   1.000  O
  O33      1.0000 0.00000  0.25000  0.13284  Biso   1.000  O
  O34      1.0000 0.50000  0.25000  0.13284  Biso   1.000  O
  O35      1.0000 0.00000  0.75000  0.12953  Biso   1.000  O
  O36      1.0000 0.50000  0.75000  0.12953  Biso   1.000  O
  O37      1.0000 0.00000  0.25000  0.63284  Biso   1.000  O
  O38      1.0000 0.50000  0.25000  0.63284  Biso   1.000  O
  O39      1.0000 0.00000  0.75000  0.62953  Biso   1.000  O
  O40      1.0000 0.50000  0.75000  0.62953  Biso   1.000  O
  O41      1.0000 0.25000  0.99921  0.13118  Biso   1.000  O
  O42      1.0000 0.75000  0.99921  0.13118  Biso   1.000  O
  O43      1.0000 0.25000  0.50079  0.13118  Biso   1.000  O
  O44      1.0000 0.75000  0.50079  0.13118  Biso   1.000  O
  O45      1.0000 0.25000  0.99921  0.63118  Biso   1.000  O
  O46      1.0000 0.75000  0.99921  0.63118  Biso   1.000  O
  O47      1.0000 0.25000  0.50079  0.63118  Biso   1.000  O
  O48      1.0000 0.75000  0.50079  0.63118  Biso   1.000  O
  O49      1.0000 0.00000  0.25000  0.37047  Biso   1.000  O
  O50      1.0000 0.50000  0.25000  0.37047  Biso   1.000  O
  O51      1.0000 0.00000  0.75000  0.36716  Biso   1.000  O
  O52      1.0000 0.50000  0.75000  0.36716  Biso   1.000  O
  O53      1.0000 0.00000  0.25000  0.87047  Biso   1.000  O
  O54      1.0000 0.50000  0.25000  0.87047  Biso   1.000  O
  O55      1.0000 0.00000  0.75000  0.86716  Biso   1.000  O
  O56      1.0000 0.50000  0.75000  0.86716  Biso   1.000  O
  O57      1.0000 0.25000  0.00079  0.36882  Biso   1.000  O
  O58      1.0000 0.75000  0.00079  0.36882  Biso   1.000  O
  O59      1.0000 0.25000  0.49921  0.36882  Biso   1.000  O
  O60      1.0000 0.75000  0.49921  0.36882  Biso   1.000  O
  O61      1.0000 0.25000  0.00079  0.86882  Biso   1.000  O
  O62      1.0000 0.75000  0.00079  0.86882  Biso   1.000  O
  O63      1.0000 0.25000  0.49921  0.86882  Biso   1.000  O
  O64      1.0000 0.75000  0.49921  0.86882  Biso   1.000  O
  O65      1.0000 0.00000  0.99168  0.20187  Biso   1.000  O
  O66      1.0000 0.50000  0.99168  0.20187  Biso   1.000  O
  O67      1.0000 0.00000  0.50832  0.20187  Biso   1.000  O
  O68      1.0000 0.50000  0.50832  0.20187  Biso   1.000  O
  O69      1.0000 0.00000  0.99168  0.70187  Biso   1.000  O
  O70      1.0000 0.50000  0.99168  0.70187  Biso   1.000  O
  O71      1.0000 0.00000  0.50832  0.70187  Biso   1.000  O
  O72      1.0000 0.50000  0.50832  0.70187  Biso   1.000  O
  O73      1.0000 0.00000  0.00832  0.29813  Biso   1.000  O
  O74      1.0000 0.50000  0.00832  0.29813  Biso   1.000  O
  O75      1.0000 0.00000  0.49168  0.29813  Biso   1.000  O
  O76      1.0000 0.50000  0.49168  0.29813  Biso   1.000  O
  O77      1.0000 0.00000  0.00832  0.79813  Biso   1.000  O
  O78      1.0000 0.50000  0.00832  0.79813  Biso   1.000  O
  O79      1.0000 0.00000  0.49168  0.79813  Biso   1.000  O
  O80      1.0000 0.50000  0.49168  0.79813  Biso   1.000  O
