data_U13Fe4
_audit_creation_date              2024-08-27
_audit_creation_method            'Materials Studio'
_symmetry_space_group_name_H-M    'C2/M'
_symmetry_Int_Tables_number       12
_symmetry_cell_setting            monoclinic
loop_
_symmetry_equiv_pos_as_xyz
  x,y,z
  -x,y,-z
  -x,-y,-z
  x,-y,z
  x+1/2,y+1/2,z
  -x+1/2,y+1/2,-z
  -x+1/2,-y+1/2,-z
  x+1/2,-y+1/2,z
_cell_length_a                    15.3024
_cell_length_b                    7.9872
_cell_length_c                    12.3014
_cell_angle_alpha                 90.0000
_cell_angle_beta                  107.7505
_cell_angle_gamma                 90.0000
loop_
_atom_site_label
_atom_site_type_symbol
_atom_site_fract_x
_atom_site_fract_y
_atom_site_fract_z
_atom_site_U_iso_or_equiv
_atom_site_adp_type
_atom_site_occupancy
U0    U    0.00719   0.26579   0.16888   0.00000  Uiso   1.00
U1    U    0.13180   0.28672   0.39056   0.00000  Uiso   1.00
U2    U    0.13761   0.28142   0.02229   0.00000  Uiso   1.00
U3    U    0.17784   0.22030   0.83515   0.00000  Uiso   1.00
U4    U    0.18530   0.21734   0.61112   0.00000  Uiso   1.00
Fe15   Fe    0.18061   0.20558   0.22308   0.00000  Uiso   1.00
U5    U    0.00000   0.24895   0.50000   0.00000  Uiso   1.00
U6    U    0.02060   0.50000   0.67091   0.00000  Uiso   1.00
U10   U    0.17476   0.50000   0.21838   0.00000  Uiso   1.00
U11   U    0.19424   0.50000   0.72828   0.00000  Uiso   1.00
Fe18   Fe    0.09668   0.50000   0.51448   0.00000  Uiso   1.00
Fe19   Fe    0.09793   0.50000   0.87627   0.00000  Uiso   1.00
U7    U    0.06598   0.00000   0.67337   0.00000  Uiso   1.00
U8    U    0.07397   0.00000   0.07981   0.00000  Uiso   1.00
U9    U    0.08527   0.00000   0.28653   0.00000  Uiso   1.00
U12   U    0.23695   0.00000   0.03734   0.00000  Uiso   1.00
U13   U    0.24013   0.00000   0.45602   0.00000  Uiso   1.00
Fe16   Fe    0.08458   0.00000   0.88199   0.00000  Uiso   1.00
Fe17   Fe    0.09083   0.00000   0.48786   0.00000  Uiso   1.00
U14   U    0.00000   0.50000   0.00000   0.00000  Uiso   1.00
loop_
_geom_bond_atom_site_label_1
_geom_bond_atom_site_label_2
_geom_bond_distance
_geom_bond_site_symmetry_2
_ccdc_geom_bond_type
U0    Fe15    2.577   .     S
U0    Fe16    2.517   2_556 S
U0    Fe19    2.419   2_556 S
U1    Fe15    2.482   .     S
U1    Fe18    2.452   .     S
U2    Fe15    2.431   .     S
U2    Fe19    2.445   1_554 S
U3    Fe19    2.668   .     S
U3    Fe16    2.443   .     S
U3    Fe15    2.550   7_556 S
U4    Fe18    2.714   .     S
U4    Fe17    2.463   .     S
U4    Fe15    2.489   7_556 S
Fe15   U10    2.353   .     S
Fe15   U8     2.591   .     S
Fe15   U9     2.476   .     S
Fe15   U3     2.550   7_556 S
Fe15   U4     2.489   7_556 S
Fe15   U11    2.454   6_546 S
U5    Fe18    2.466   .     S
U5    Fe18    2.466   2_556 S
U5    Fe17    2.457   .     S
U5    Fe17    2.457   2_556 S
U6    U11    2.533   .     S
U6    Fe18    2.535   .     S
U6    Fe19    2.441   .     S
U6    Fe18    2.434   2_556 S
U10   Fe15    2.353   4_565 S
U11   Fe18    2.598   .     S
U11   Fe19    2.669   .     S
U11   Fe15    2.454   6_556 S
U11   Fe15    2.454   7_556 S
Fe18   U4     2.714   4_565 S
Fe18   U5     2.466   3_566 S
Fe18   U1     2.452   4_565 S
Fe18   U6     2.434   2_556 S
Fe18   Fe18    2.870   2_556 S
Fe18   U13    2.411   6_556 S
Fe19   U3     2.668   4_565 S
Fe19   U2     2.445   1_556 S
Fe19   U2     2.445   4_566 S
Fe19   U14    2.440   1_556 S
Fe19   U0     2.419   2_556 S
Fe19   U0     2.419   3_566 S
Fe19   U12    2.424   6_556 S
U7    Fe16    2.494   .     S
U7    Fe17    2.425   .     S
U7    Fe17    2.606   2_556 S
U7    U9     2.509   2_556 S
U8    Fe15    2.591   4     S
U8    U9     2.496   .     S
U8    Fe16    2.488   1_554 S
U8    Fe16    2.608   2_556 S
U8    U8     2.504   2     S
U9    Fe15    2.476   4     S
U9    Fe17    2.452   .     S
U9    U7     2.509   2_556 S
U12   Fe16    2.524   1_554 S
U12   Fe19    2.424   6_546 S
U13   Fe17    2.433   .     S
U13   Fe18    2.411   6_546 S
Fe16   U3     2.443   4     S
Fe16   U8     2.488   1_556 S
Fe16   U12    2.524   1_556 S
Fe16   U0     2.517   2_556 S
Fe16   U0     2.517   3_556 S
Fe16   U8     2.608   2_556 S
Fe17   U4     2.463   4     S
Fe17   U5     2.457   3_556 S
Fe17   U7     2.606   2_556 S
Fe17   Fe17    2.885   2_556 S
U14   Fe19    2.440   1_554 S
U14   Fe19    2.440   2_556 S
