data_image0
_cell_length_a       7.85281
_cell_length_b       7.85281
_cell_length_c       30.3621
_cell_angle_alpha    90
_cell_angle_beta     90
_cell_angle_gamma    90

_symmetry_space_group_name_H-M    "P 1"
_symmetry_int_tables_number       1

loop_
  _symmetry_equiv_pos_as_xyz
  'x, y, z'

loop_
  _atom_site_label
  _atom_site_occupancy
  _atom_site_fract_x
  _atom_site_fract_y
  _atom_site_fract_z
  _atom_site_thermal_displace_type
  _atom_site_B_iso_or_equiv
  _atom_site_type_symbol
  K1       1.0000 0.43293  0.44960  0.28233  Biso   1.000  K
  K2       1.0000 0.85871  0.25698  0.25000  Biso   1.000  K
  K3       1.0000 0.17863  0.93706  0.25000  Biso   1.000  K
  K4       1.0000 0.75285  0.76952  0.21767  Biso   1.000  K
  K5       1.0000 0.31919  0.27938  0.74342  Biso   1.000  K
  K6       1.0000 0.73671  0.18150  0.75000  Biso   1.000  K
  K7       1.0000 0.23671  0.68150  0.75000  Biso   1.000  K
  K8       1.0000 0.81919  0.77938  0.75658  Biso   1.000  K
  Pb1      1.0000 0.25087  0.23896  0.07550  Biso   1.000  Pb
  Pb2      1.0000 0.73377  0.21585  0.07337  Biso   1.000  Pb
  Pb3      1.0000 0.23295  0.71666  0.07337  Biso   1.000  Pb
  Pb4      1.0000 0.75005  0.73815  0.07124  Biso   1.000  Pb
  Pb5      1.0000 0.22730  0.21225  0.57325  Biso   1.000  Pb
  Pb6      1.0000 0.71710  0.26111  0.57337  Biso   1.000  Pb
  Pb7      1.0000 0.21705  0.76115  0.57337  Biso   1.000  Pb
  Pb8      1.0000 0.72726  0.71221  0.57349  Biso   1.000  Pb
  Pb9      1.0000 0.19107  0.24096  0.42876  Biso   1.000  Pb
  Pb10     1.0000 0.75304  0.22772  0.42663  Biso   1.000  Pb
  Pb11     1.0000 0.25222  0.72853  0.42663  Biso   1.000  Pb
  Pb12     1.0000 0.69026  0.74015  0.42450  Biso   1.000  Pb
  Pb13     1.0000 0.20804  0.20038  0.92651  Biso   1.000  Pb
  Pb14     1.0000 0.77689  0.25911  0.92663  Biso   1.000  Pb
  Pb15     1.0000 0.27684  0.75915  0.92663  Biso   1.000  Pb
  Pb16     1.0000 0.70799  0.70034  0.92675  Biso   1.000  Pb
  Nb1      1.0000 0.98614  0.97986  0.00000  Biso   1.000  Nb
  Nb2      1.0000 0.48340  0.97920  0.00000  Biso   1.000  Nb
  Nb3      1.0000 0.98568  0.47693  0.00000  Biso   1.000  Nb
  Nb4      1.0000 0.48386  0.47758  0.00000  Biso   1.000  Nb
  Nb5      1.0000 0.98082  0.98729  0.50000  Biso   1.000  Nb
  Nb6      1.0000 0.48263  0.98664  0.50000  Biso   1.000  Nb
  Nb7      1.0000 0.98036  0.48891  0.50000  Biso   1.000  Nb
  Nb8      1.0000 0.48309  0.48957  0.50000  Biso   1.000  Nb
  Ta1      1.0000 0.03116  0.00057  0.14358  Biso   1.000  Ta
  Ta2      1.0000 0.54331  0.00302  0.14358  Biso   1.000  Ta
  Ta3      1.0000 0.03040  0.51593  0.14358  Biso   1.000  Ta
  Ta4      1.0000 0.54407  0.51349  0.14358  Biso   1.000  Ta
  Ta5      1.0000 0.96150  0.99628  0.64358  Biso   1.000  Ta
  Ta6      1.0000 0.47664  0.00030  0.64358  Biso   1.000  Ta
  Ta7      1.0000 0.97711  0.49983  0.64358  Biso   1.000  Ta
  Ta8      1.0000 0.46103  0.49580  0.64358  Biso   1.000  Ta
  Ta9      1.0000 0.97324  0.98754  0.35642  Biso   1.000  Ta
  Ta10     1.0000 0.46178  0.00773  0.35642  Biso   1.000  Ta
  Ta11     1.0000 0.97470  0.49482  0.35642  Biso   1.000  Ta
  Ta12     1.0000 0.46033  0.47463  0.35642  Biso   1.000  Ta
  Ta13     1.0000 0.02964  0.00400  0.85642  Biso   1.000  Ta
  Ta14     1.0000 0.54794  0.02577  0.85642  Biso   1.000  Ta
  Ta15     1.0000 0.04746  0.52625  0.85642  Biso   1.000  Ta
  Ta16     1.0000 0.53012  0.50447  0.85642  Biso   1.000  Ta
  O1       1.0000 0.06732  0.26950  0.00431  Biso   1.000  O
  O2       1.0000 0.56827  0.26950  0.98860  Biso   1.000  O
  O3       1.0000 0.06739  0.76950  0.99569  Biso   1.000  O
  O4       1.0000 0.56834  0.76950  0.01140  Biso   1.000  O
  O5       1.0000 0.05216  0.25320  0.50301  Biso   1.000  O
  O6       1.0000 0.42389  0.25320  0.48991  Biso   1.000  O
  O7       1.0000 0.92491  0.75320  0.49699  Biso   1.000  O
  O8       1.0000 0.55127  0.75320  0.51009  Biso   1.000  O
  O9       1.0000 0.28313  0.04444  0.00410  Biso   1.000  O
  O10      1.0000 0.78313  0.04451  0.99590  Biso   1.000  O
  O11      1.0000 0.28313  0.54539  0.98882  Biso   1.000  O
  O12      1.0000 0.78313  0.54546  0.01118  Biso   1.000  O
  O13      1.0000 0.23957  0.94772  0.49062  Biso   1.000  O
  O14      1.0000 0.73957  0.07511  0.50938  Biso   1.000  O
  O15      1.0000 0.23957  0.57409  0.50230  Biso   1.000  O
  O16      1.0000 0.73957  0.44684  0.49770  Biso   1.000  O
  O17      1.0000 0.03054  0.01537  0.06512  Biso   1.000  O
  O18      1.0000 0.54596  0.06131  0.06512  Biso   1.000  O
  O19      1.0000 0.07836  0.52890  0.06512  Biso   1.000  O
  O20      1.0000 0.49814  0.48297  0.06512  Biso   1.000  O
  O21      1.0000 0.02266  0.99486  0.56512  Biso   1.000  O
  O22      1.0000 0.45405  0.03119  0.56512  Biso   1.000  O
  O23      1.0000 0.97116  0.51408  0.56512  Biso   1.000  O
  O24      1.0000 0.50555  0.47775  0.56512  Biso   1.000  O
  O25      1.0000 0.95453  0.01691  0.43488  Biso   1.000  O
  O26      1.0000 0.52149  0.95654  0.43488  Biso   1.000  O
  O27      1.0000 0.98908  0.48894  0.43488  Biso   1.000  O
  O28      1.0000 0.48693  0.54931  0.43488  Biso   1.000  O
  O29      1.0000 0.06243  0.05012  0.93488  Biso   1.000  O
  O30      1.0000 0.51477  0.98014  0.93488  Biso   1.000  O
  O31      1.0000 0.99766  0.49725  0.93488  Biso   1.000  O
  O32      1.0000 0.57954  0.56723  0.93488  Biso   1.000  O
  O33      1.0000 0.01836  0.25657  0.13448  Biso   1.000  O
  O34      1.0000 0.52329  0.25657  0.13863  Biso   1.000  O
  O35      1.0000 0.01936  0.75657  0.12789  Biso   1.000  O
  O36      1.0000 0.52429  0.75657  0.12373  Biso   1.000  O
  O37      1.0000 0.98847  0.25066  0.63111  Biso   1.000  O
  O38      1.0000 0.49168  0.25066  0.63375  Biso   1.000  O
  O39      1.0000 0.99025  0.75066  0.63125  Biso   1.000  O
  O40      1.0000 0.48990  0.75066  0.62861  Biso   1.000  O
  O41      1.0000 0.26712  0.00677  0.13379  Biso   1.000  O
  O42      1.0000 0.76712  0.00777  0.12858  Biso   1.000  O
  O43      1.0000 0.26712  0.51169  0.13932  Biso   1.000  O
  O44      1.0000 0.76712  0.51269  0.12304  Biso   1.000  O
  O45      1.0000 0.24011  0.00184  0.63749  Biso   1.000  O
  O46      1.0000 0.74011  0.00006  0.62487  Biso   1.000  O
  O47      1.0000 0.24011  0.50149  0.62737  Biso   1.000  O
  O48      1.0000 0.74011  0.50327  0.63499  Biso   1.000  O
  O49      1.0000 0.99060  0.24826  0.36819  Biso   1.000  O
  O50      1.0000 0.48745  0.24826  0.38019  Biso   1.000  O
  O51      1.0000 0.99338  0.74826  0.36945  Biso   1.000  O
  O52      1.0000 0.48667  0.74826  0.35744  Biso   1.000  O
  O53      1.0000 0.02258  0.25897  0.86331  Biso   1.000  O
  O54      1.0000 0.52115  0.25897  0.87683  Biso   1.000  O
  O55      1.0000 0.02259  0.75897  0.87433  Biso   1.000  O
  O56      1.0000 0.52116  0.75897  0.86081  Biso   1.000  O
  O57      1.0000 0.23956  0.00210  0.37595  Biso   1.000  O
  O58      1.0000 0.73956  0.00132  0.36169  Biso   1.000  O
  O59      1.0000 0.23956  0.49540  0.37243  Biso   1.000  O
  O60      1.0000 0.73956  0.49818  0.36520  Biso   1.000  O
  O61      1.0000 0.26766  0.01286  0.86400  Biso   1.000  O
  O62      1.0000 0.76766  0.01287  0.87364  Biso   1.000  O
  O63      1.0000 0.26766  0.51143  0.87613  Biso   1.000  O
  O64      1.0000 0.76766  0.51144  0.86150  Biso   1.000  O
  O65      1.0000 0.98787  0.96784  0.20187  Biso   1.000  O
  O66      1.0000 0.53681  0.96581  0.20187  Biso   1.000  O
  O67      1.0000 0.97451  0.52812  0.20187  Biso   1.000  O
  O68      1.0000 0.55018  0.53015  0.20187  Biso   1.000  O
  O69      1.0000 0.95827  0.99622  0.70187  Biso   1.000  O
  O70      1.0000 0.51392  0.00045  0.70187  Biso   1.000  O
  O71      1.0000 0.00968  0.50470  0.70187  Biso   1.000  O
  O72      1.0000 0.46252  0.50047  0.70187  Biso   1.000  O
  O73      1.0000 0.01775  0.99121  0.29813  Biso   1.000  O
  O74      1.0000 0.44993  0.05209  0.29813  Biso   1.000  O
  O75      1.0000 0.01224  0.48978  0.29813  Biso   1.000  O
  O76      1.0000 0.45545  0.42890  0.29813  Biso   1.000  O
  O77      1.0000 0.98710  0.97650  0.79813  Biso   1.000  O
  O78      1.0000 0.54210  0.04364  0.79813  Biso   1.000  O
  O79      1.0000 0.04635  0.53940  0.79813  Biso   1.000  O
  O80      1.0000 0.48285  0.47225  0.79813  Biso   1.000  O
